lig_eg5_CHEMBL1078998
                    3D
 Schrodinger Suite 2020-3.
 48 51  0  0  1  0            999 V2000
   22.9366   17.2576   32.0390 C   0  0  0  0  0  0
   22.6943   18.1942   30.8385 C   0  0  0  0  0  0
   22.0061   17.3722   29.7222 C   0  0  0  0  0  0
   21.7050   19.2826   31.3110 C   0  0  0  0  0  0
   24.0274   18.8184   30.3412 C   0  0  0  0  0  0
   24.5890   19.9101   31.0154 C   0  0  0  0  0  0
   25.8064   20.4438   30.6127 C   0  0  0  0  0  0
   26.4887   19.9242   29.5150 C   0  0  0  0  0  0
   25.9669   18.8147   28.8233 C   0  0  0  0  0  0
   24.7330   18.2971   29.2434 C   0  0  0  0  0  0
   26.8204   18.0947   27.7822 C   0  0  1  0  0  0
   26.0023   17.6443   26.6990 O   0  0  0  0  0  0
   26.7020   16.8236   25.7575 C   0  0  0  0  0  0
   27.8993   17.5842   25.1442 C   0  0  0  0  0  0
   28.7854   18.1817   26.2509 C   0  0  0  0  0  0
   27.9218   19.0197   27.2217 C   0  0  2  0  0  0
   28.7000   19.6749   28.3889 C   0  0  1  0  0  0
   29.8761   20.5251   27.9450 C   0  0  0  0  0  0
   29.9798   21.4340   26.8890 C   0  0  0  0  0  0
   31.2571   21.9760   26.7154 C   0  0  0  0  0  0
   32.1461   21.5374   27.6759 C   0  0  0  0  0  0
   31.3984   20.4461   28.7866 S   0  0  0  0  0  0
   27.7657   20.4435   29.2168 N   0  0  0  0  0  0
   22.0045   16.8098   32.3895 H   0  0  0  0  0  0
   23.3745   17.7832   32.8856 H   0  0  0  0  0  0
   23.6025   16.4439   31.7690 H   0  0  0  0  0  0
   22.5462   16.4440   29.5385 H   0  0  0  0  0  0
   21.9849   17.9251   28.7832 H   0  0  0  0  0  0
   20.9803   17.0969   29.9753 H   0  0  0  0  0  0
   20.7239   18.8664   31.5153 H   0  0  0  0  0  0
   21.5722   20.0438   30.5555 H   0  0  0  0  0  0
   22.0249   19.7831   32.2254 H   0  0  0  0  0  0
   24.1094   20.3331   31.8843 H   0  0  0  0  0  0
   26.2324   21.2440   31.1905 H   0  0  0  0  0  0
   24.3664   17.4226   28.7261 H   0  0  0  0  0  0
   27.2653   17.2312   28.2821 H   0  0  0  0  0  0
   27.0372   15.9060   26.2443 H   0  0  0  0  0  0
   26.0084   16.5213   24.9727 H   0  0  0  0  0  0
   28.4862   16.9173   24.5099 H   0  0  0  0  0  0
   27.5282   18.3823   24.4983 H   0  0  0  0  0  0
   29.2857   17.3837   26.7998 H   0  0  0  0  0  0
   29.5973   18.7741   25.8287 H   0  0  0  0  0  0
   27.4325   19.8098   26.6452 H   0  0  0  0  0  0
   29.0842   18.8700   29.0190 H   0  0  0  0  0  0
   29.1500   21.6655   26.2358 H   0  0  0  0  0  0
   31.5164   22.6607   25.9175 H   0  0  0  0  0  0
   33.1899   21.7970   27.7869 H   0  0  0  0  0  0
   28.1824   21.1638   29.7874 H   0  0  0  0  0  0
  1  2  1  0  0  0
  1 24  1  0  0  0
  1 25  1  0  0  0
  1 26  1  0  0  0
  2  3  1  0  0  0
  2  4  1  0  0  0
  2  5  1  0  0  0
  3 27  1  0  0  0
  3 28  1  0  0  0
  3 29  1  0  0  0
  4 30  1  0  0  0
  4 31  1  0  0  0
  4 32  1  0  0  0
  5 10  1  0  0  0
  5  6  2  0  0  0
  6  7  1  0  0  0
  6 33  1  0  0  0
  7  8  2  0  0  0
  7 34  1  0  0  0
  8 23  1  0  0  0
  8  9  1  0  0  0
  9 10  2  0  0  0
  9 11  1  0  0  0
 10 35  1  0  0  0
 11 16  1  0  0  0
 11 12  1  0  0  0
 11 36  1  0  0  0
 12 13  1  0  0  0
 13 14  1  0  0  0
 13 37  1  0  0  0
 13 38  1  0  0  0
 14 15  1  0  0  0
 14 39  1  0  0  0
 14 40  1  0  0  0
 15 16  1  0  0  0
 15 41  1  0  0  0
 15 42  1  0  0  0
 16 17  1  0  0  0
 16 43  1  0  0  0
 17 18  1  0  0  0
 17 23  1  0  0  0
 17 44  1  0  0  0
 18 22  1  0  0  0
 18 19  2  0  0  0
 19 20  1  0  0  0
 19 45  1  0  0  0
 20 21  2  0  0  0
 20 46  1  0  0  0
 21 22  1  0  0  0
 21 47  1  0  0  0
 23 48  1  0  0  0
M  END
> <s_m_source_file>
/home/user-home/yujie/0_PBCNetv2/data/FEP/eg5/inp_ligprep.csv

> <i_m_source_file_index>
20

> <i_lp_mmshare_version>
51139

> <i_f3d_flags>
0

> <s_epik_input>
W0NIM11DKFtDSDNdKShbQ0gzXSljKFtjSF1bY0hdMSlbY0hdYyhjMTIpW0NAQEhdM1tDQEhdKFtDSDJdW0NIMl1bQ0gyXU8zKVtDQEhdKFtOSF0yKWM0W2NIXVtjSF1bY0hdczQ=

> <s_epik_cmdline>
J2VwaWtfcHl0aG9uJywgJy1waHQnLCAnMi4wJywgJy1waCcsICc3LjQnLCAnLXRuJywgJzgnLCAnLW1hJywgJzIwMCcsICctaW1hZScsICc8aW5maWxlLm1hZT4nLCAnLW9tYWUnLCAnPG91dGZpbGUubWFlPic=

> <r_lp_tautomer_probability>
1

> <r_epik_Ionization_Penalty>
  0.0003

> <r_epik_Ionization_Penalty_Charging>
  0.0000

> <r_epik_Ionization_Penalty_Neutral>
  0.0003

> <r_epik_State_Penalty>
 -0.0000

> <r_epik_Charging_Adjusted_Penalty>
0

> <i_epik_Tot_Q>
0

> <i_epik_Tot_abs_Q>
0

> <s_lp_Force_Field>
OPLS3e

> <r_lp_Energy>
29.8989

> <b_lp_Chiralities_Consistent>
1

> <s_lp_Variant>
lig_eg5_CHEMBL1078998-1

> <s_i_glide_gridfile>
eg5-001-gridgen

> <i_i_glide_lignum>
27

> <i_i_glide_rotatable_bonds>
2

> <r_i_docking_score>
-8.55506914383746

> <r_i_glide_ligand_efficiency>
-0.371959527992933

> <r_i_glide_ligand_efficiency_sa>
-1.0578034183947

> <r_i_glide_ligand_efficiency_ln>
-2.06869329205804

> <r_i_glide_gscore>
-8.55506914383746

> <r_i_glide_lipo>
-5.24237374237148

> <r_i_glide_hbond>
0

> <r_i_glide_metal>
-0

> <r_i_glide_rewards>
-1.28516140316854

> <r_i_glide_evdw>
-41.2499580383301

> <r_i_glide_ecoul>
-0.933618783950806

> <r_i_glide_erotb>
0.175006721211681

> <r_i_glide_esite>
0

> <r_i_glide_emodel>
-59.3746802908388

> <r_i_glide_energy>
-42.1835768222809

> <r_i_glide_einternal>
1.68011951446533

> <i_i_glide_confnum>
2

> <i_i_glide_posenum>
297

> <r_i_glide_eff_state_penalty>
-0

$$$$
