lig_eg5_CHEMBL1078691
                    3D
 Schrodinger Suite 2020-3.
 52 55  0  0  1  0            999 V2000
   22.8031   17.6057   32.5107 C   0  0  0  0  0  0
   22.3812   18.3538   31.2347 C   0  0  0  0  0  0
   21.6873   17.3566   30.2802 C   0  0  0  0  0  0
   21.3914   19.5101   31.5552 C   0  0  0  0  0  0
   23.6725   18.9430   30.6350 C   0  0  0  0  0  0
   24.2647   20.0439   31.2589 C   0  0  0  0  0  0
   25.4689   20.5585   30.8189 C   0  0  0  0  0  0
   26.1289   19.9564   29.7613 C   0  0  0  0  0  0
   25.5954   18.8165   29.1293 C   0  0  0  0  0  0
   24.3463   18.3543   29.5550 C   0  0  0  0  0  0
   26.4415   17.9922   28.1712 C   0  0  1  0  0  0
   25.6704   17.6437   27.0228 O   0  0  0  0  0  0
   26.3406   16.7105   26.1624 C   0  0  0  0  0  0
   27.6793   17.2808   25.6448 C   0  0  0  0  0  0
   28.5160   17.8545   26.8016 C   0  0  0  0  0  0
   27.6339   18.7960   27.6540 C   0  0  2  0  0  0
   28.3628   19.5718   28.7880 C   0  0  1  0  0  0
   29.4640   20.4212   28.2057 C   0  0  0  0  0  0
   30.7905   20.2832   28.6198 C   0  0  0  0  0  0
   31.7892   20.9272   27.8971 C   0  0  0  0  0  0
   31.4392   21.6439   26.7586 C   0  0  0  0  0  0
   32.4025   22.0832   25.9153 O   0  0  0  0  0  0
   30.1138   21.8564   26.4107 C   0  0  0  0  0  0
   29.1234   21.2819   27.1628 C   0  0  0  0  0  0
   27.4157   20.4263   29.4883 N   0  0  0  0  0  0
   22.0025   17.1059   33.0414 H   0  0  0  0  0  0
   23.2551   18.3185   33.1880 H   0  0  0  0  0  0
   23.5544   16.8449   32.2946 H   0  0  0  0  0  0
   22.2687   16.4439   30.1859 H   0  0  0  0  0  0
   21.6016   17.7650   29.2751 H   0  0  0  0  0  0
   20.6921   17.0739   30.6245 H   0  0  0  0  0  0
   20.4057   19.2438   31.9155 H   0  0  0  0  0  0
   21.2027   20.0438   30.6388 H   0  0  0  0  0  0
   21.7652   20.2219   32.2884 H   0  0  0  0  0  0
   23.8210   20.4962   32.1282 H   0  0  0  0  0  0
   25.9059   21.3966   31.3387 H   0  0  0  0  0  0
   23.9627   17.4584   29.0915 H   0  0  0  0  0  0
   26.7681   17.0979   28.7080 H   0  0  0  0  0  0
   26.5027   15.7709   26.6940 H   0  0  0  0  0  0
   25.6876   16.4777   25.3208 H   0  0  0  0  0  0
   28.2407   16.5115   25.1133 H   0  0  0  0  0  0
   27.4734   18.0696   24.9197 H   0  0  0  0  0  0
   28.9497   17.0689   27.4234 H   0  0  0  0  0  0
   29.3732   18.3915   26.3939 H   0  0  0  0  0  0
   27.1954   19.5263   26.9718 H   0  0  0  0  0  0
   28.8013   18.8720   29.5020 H   0  0  0  0  0  0
   31.0496   19.6446   29.4515 H   0  0  0  0  0  0
   32.8295   20.8274   28.1670 H   0  0  0  0  0  0
   32.0264   22.5503   25.1591 H   0  0  0  0  0  0
   29.8187   22.3881   25.5173 H   0  0  0  0  0  0
   28.0959   21.4389   26.8671 H   0  0  0  0  0  0
   27.8294   21.1694   30.0305 H   0  0  0  0  0  0
  1  2  1  0  0  0
  1 26  1  0  0  0
  1 27  1  0  0  0
  1 28  1  0  0  0
  2  3  1  0  0  0
  2  4  1  0  0  0
  2  5  1  0  0  0
  3 29  1  0  0  0
  3 30  1  0  0  0
  3 31  1  0  0  0
  4 32  1  0  0  0
  4 33  1  0  0  0
  4 34  1  0  0  0
  5 10  1  0  0  0
  5  6  2  0  0  0
  6  7  1  0  0  0
  6 35  1  0  0  0
  7  8  2  0  0  0
  7 36  1  0  0  0
  8 25  1  0  0  0
  8  9  1  0  0  0
  9 10  2  0  0  0
  9 11  1  0  0  0
 10 37  1  0  0  0
 11 16  1  0  0  0
 11 12  1  0  0  0
 11 38  1  0  0  0
 12 13  1  0  0  0
 13 14  1  0  0  0
 13 39  1  0  0  0
 13 40  1  0  0  0
 14 15  1  0  0  0
 14 41  1  0  0  0
 14 42  1  0  0  0
 15 16  1  0  0  0
 15 43  1  0  0  0
 15 44  1  0  0  0
 16 17  1  0  0  0
 16 45  1  0  0  0
 17 18  1  0  0  0
 17 25  1  0  0  0
 17 46  1  0  0  0
 18 24  1  0  0  0
 18 19  2  0  0  0
 19 20  1  0  0  0
 19 47  1  0  0  0
 20 21  2  0  0  0
 20 48  1  0  0  0
 21 22  1  0  0  0
 21 23  1  0  0  0
 22 49  1  0  0  0
 23 24  2  0  0  0
 23 50  1  0  0  0
 24 51  1  0  0  0
 25 52  1  0  0  0
M  END
> <s_m_source_file>
/home/user-home/yujie/0_PBCNetv2/data/FEP/eg5/inp_ligprep.csv

> <i_m_source_file_index>
23

> <i_lp_mmshare_version>
51139

> <i_f3d_flags>
0

> <s_epik_input>
W0NIM11DKFtDSDNdKShbQ0gzXSljKFtjSF1bY0hdMSlbY0hdYyhjMTIpW0NAQEhdM1tDQEhdKFtDSDJdW0NIMl1bQ0gyXU8zKVtDQEhdKFtOSF0yKWM0W2NIXVtjSF1jKFtPSF0pW2NIXVtjSF00

> <s_epik_cmdline>
J2VwaWtfcHl0aG9uJywgJy1waHQnLCAnMi4wJywgJy1waCcsICc3LjQnLCAnLXRuJywgJzgnLCAnLW1hJywgJzIwMCcsICctaW1hZScsICc8aW5maWxlLm1hZT4nLCAnLW9tYWUnLCAnPG91dGZpbGUubWFlPic=

> <r_lp_tautomer_probability>
1

> <r_epik_Ionization_Penalty>
  0.0010

> <r_epik_Ionization_Penalty_Charging>
  0.0000

> <r_epik_Ionization_Penalty_Neutral>
  0.0010

> <r_epik_State_Penalty>
 -0.0000

> <r_epik_Charging_Adjusted_Penalty>
0

> <i_epik_Tot_Q>
0

> <i_epik_Tot_abs_Q>
0

> <s_lp_Force_Field>
OPLS3e

> <r_lp_Energy>
35.2927

> <b_lp_Chiralities_Consistent>
1

> <s_lp_Variant>
lig_eg5_CHEMBL1078691-1

> <s_i_glide_gridfile>
eg5-001-gridgen

> <i_i_glide_lignum>
31

> <i_i_glide_rotatable_bonds>
3

> <r_i_docking_score>
-8.85112180258791

> <r_i_glide_ligand_efficiency>
-0.354044872103516

> <r_i_glide_ligand_efficiency_sa>
-1.03523348504322

> <r_i_glide_ligand_efficiency_ln>
-2.09798111392966

> <r_i_glide_gscore>
-8.85112180258791

> <r_i_glide_lipo>
-5.25289442629471

> <r_i_glide_hbond>
-0.32

> <r_i_glide_metal>
-0

> <r_i_glide_rewards>
-1.27364820326417

> <r_i_glide_evdw>
-34.1078186035156

> <r_i_glide_ecoul>
-3.10102081298828

> <r_i_glide_erotb>
0.165964879094993

> <r_i_glide_esite>
0

> <r_i_glide_emodel>
-53.8799127349251

> <r_i_glide_energy>
-37.2088394165039

> <r_i_glide_einternal>
2.19932389259338

> <i_i_glide_confnum>
2

> <i_i_glide_posenum>
163

> <r_i_glide_eff_state_penalty>
-0

$$$$
