lig_eg5_CHEMBL1077227
                    3D
 Schrodinger Suite 2020-3.
 57 60  0  0  1  0            999 V2000
   26.9261   14.7619   23.5834 C   0  0  0  0  0  0
   27.9660   14.8439   24.7157 N   0  3  0  0  0  0
   27.4349   15.4299   26.0430 C   0  0  0  0  0  0
   27.1129   16.9318   25.9333 C   0  0  2  0  0  0
   28.3337   17.7518   25.4613 C   0  0  0  0  0  0
   28.0277   19.2524   25.4805 C   0  0  0  0  0  0
   27.4153   19.7188   26.8245 C   0  0  2  0  0  0
   28.3999   19.8218   28.0305 C   0  0  1  0  0  0
   29.6978   20.5660   27.7774 C   0  0  0  0  0  0
   30.9667   20.3439   28.3168 C   0  0  0  0  0  0
   31.9748   21.1605   27.7952 C   0  0  0  0  0  0
   31.4902   22.0438   26.8533 C   0  0  0  0  0  0
   29.7718   21.9380   26.7155 S   0  0  0  0  0  0
   27.6755   20.4438   29.1365 N   0  0  0  0  0  0
   26.3883   19.9766   29.4543 C   0  0  0  0  0  0
   25.8625   20.3143   30.6969 C   0  0  0  0  0  0
   24.6553   19.7699   31.1154 C   0  0  0  0  0  0
   23.9766   18.8284   30.3352 C   0  0  0  0  0  0
   22.6873   18.1712   30.8928 C   0  0  0  0  0  0
   21.7014   19.2632   31.3547 C   0  0  0  0  0  0
   23.0038   17.2746   32.1106 C   0  0  0  0  0  0
   21.9792   17.2740   29.8507 C   0  0  0  0  0  0
   24.5066   18.5252   29.0676 C   0  0  0  0  0  0
   25.6895   19.1083   28.5932 C   0  0  0  0  0  0
   26.2343   18.7807   27.1999 C   0  0  2  0  0  0
   26.6722   17.4155   27.2051 O   0  0  0  0  0  0
   28.3132   13.9093   24.8975 H   0  0  0  0  0  0
   27.4140   14.2594   22.7465 H   0  0  0  0  0  0
   26.6351   15.7777   23.3124 H   0  0  0  0  0  0
   26.0784   14.1808   23.9518 H   0  0  0  0  0  0
   26.5612   14.8371   26.3141 H   0  0  0  0  0  0
   28.2276   15.2446   26.7705 H   0  0  0  0  0  0
   26.2930   17.0371   25.2199 H   0  0  0  0  0  0
   29.1955   17.5394   26.0970 H   0  0  0  0  0  0
   28.6250   17.4625   24.4518 H   0  0  0  0  0  0
   28.9263   19.8077   25.2221 H   0  0  0  0  0  0
   27.3178   19.4753   24.6815 H   0  0  0  0  0  0
   26.9903   20.7104   26.6457 H   0  0  0  0  0  0
   28.6587   18.8105   28.3505 H   0  0  0  0  0  0
   31.1599   19.5778   29.0522 H   0  0  0  0  0  0
   33.0149   21.1009   28.0826 H   0  0  0  0  0  0
   32.0327   22.7787   26.2750 H   0  0  0  0  0  0
   28.2398   20.9359   29.8123 H   0  0  0  0  0  0
   26.4014   20.9769   31.3551 H   0  0  0  0  0  0
   24.2788   20.0438   32.0894 H   0  0  0  0  0  0
   20.7099   18.8571   31.5152 H   0  0  0  0  0  0
   21.6003   20.0437   30.6127 H   0  0  0  0  0  0
   22.0089   19.7438   32.2843 H   0  0  0  0  0  0
   23.5418   17.8062   32.8932 H   0  0  0  0  0  0
   23.6025   16.4198   31.8177 H   0  0  0  0  0  0
   22.0964   16.8731   32.5639 H   0  0  0  0  0  0
   21.0506   16.8479   30.2348 H   0  0  0  0  0  0
   22.6252   16.4453   29.5704 H   0  0  0  0  0  0
   21.7374   17.8148   28.9391 H   0  0  0  0  0  0
   24.0080   17.8254   28.4164 H   0  0  0  0  0  0
   25.4267   18.9043   26.4745 H   0  0  0  0  0  0
   28.7604   15.3919   24.4127 H   0  0  0  0  0  0
  1  2  1  0  0  0
  1 28  1  0  0  0
  1 29  1  0  0  0
  1 30  1  0  0  0
  2 27  1  0  0  0
  2  3  1  0  0  0
  2 57  1  0  0  0
  3  4  1  0  0  0
  3 31  1  0  0  0
  3 32  1  0  0  0
  4 26  1  0  0  0
  4  5  1  0  0  0
  4 33  1  0  0  0
  5  6  1  0  0  0
  5 34  1  0  0  0
  5 35  1  0  0  0
  6  7  1  0  0  0
  6 36  1  0  0  0
  6 37  1  0  0  0
  7 25  1  0  0  0
  7  8  1  0  0  0
  7 38  1  0  0  0
  8  9  1  0  0  0
  8 14  1  0  0  0
  8 39  1  0  0  0
  9 13  1  0  0  0
  9 10  2  0  0  0
 10 11  1  0  0  0
 10 40  1  0  0  0
 11 12  2  0  0  0
 11 41  1  0  0  0
 12 13  1  0  0  0
 12 42  1  0  0  0
 14 15  1  0  0  0
 14 43  1  0  0  0
 15 24  2  0  0  0
 15 16  1  0  0  0
 16 17  2  0  0  0
 16 44  1  0  0  0
 17 18  1  0  0  0
 17 45  1  0  0  0
 18 19  1  0  0  0
 18 23  2  0  0  0
 19 20  1  0  0  0
 19 21  1  0  0  0
 19 22  1  0  0  0
 20 46  1  0  0  0
 20 47  1  0  0  0
 20 48  1  0  0  0
 21 49  1  0  0  0
 21 50  1  0  0  0
 21 51  1  0  0  0
 22 52  1  0  0  0
 22 53  1  0  0  0
 22 54  1  0  0  0
 23 24  1  0  0  0
 23 55  1  0  0  0
 24 25  1  0  0  0
 25 26  1  0  0  0
 25 56  1  0  0  0
M  CHG  1   2   1
M  END
> <s_m_source_file>
/home/user-home/yujie/0_PBCNetv2/data/FEP/eg5/inp_ligprep.csv

> <i_m_source_file_index>
6

> <i_lp_mmshare_version>
51139

> <i_f3d_flags>
0

> <s_epik_input>
W0NIM11bTkhdW0NIMl1bQ0BIXShbQ0gyXVtDSDJdMSlPW0NASF0oW0NASF0xMiljM2MoW2NIXVtjSF1jKFtjSF0zKUMoW0NIM10pKFtDSDNdKVtDSDNdKVtOSF1bQ0BASF0yYzRbY0hdW2NIXVtjSF1zNA==

> <s_epik_cmdline>
J2VwaWtfcHl0aG9uJywgJy1waHQnLCAnMi4wJywgJy1waCcsICc3LjQnLCAnLXRuJywgJzgnLCAnLW1hJywgJzIwMCcsICctaW1hZScsICc8aW5maWxlLm1hZT4nLCAnLW9tYWUnLCAnPG91dGZpbGUubWFlPic=

> <r_lp_tautomer_probability>
1

> <r_epik_Ionization_Penalty>
  0.0026

> <r_epik_Ionization_Penalty_Charging>
  0.0023

> <r_epik_Ionization_Penalty_Neutral>
  0.0002

> <r_epik_State_Penalty>
 -0.0000

> <r_epik_Charging_Adjusted_Penalty>
0.00234437

> <i_epik_Tot_Q>
1

> <i_epik_Tot_abs_Q>
1

> <s_lp_Force_Field>
OPLS3e

> <r_lp_Energy>
34.9099

> <b_lp_Chiralities_Consistent>
1

> <s_lp_Variant>
lig_eg5_CHEMBL1077227-1

> <s_i_glide_gridfile>
eg5-001-gridgen

> <i_i_glide_lignum>
7

> <i_i_glide_rotatable_bonds>
4

> <r_i_docking_score>
-8.13094832591857

> <r_i_glide_ligand_efficiency>
-0.312728781766099

> <r_i_glide_ligand_efficiency_sa>
-0.926457785453732

> <r_i_glide_ligand_efficiency_ln>
-1.90952653452442

> <r_i_glide_gscore>
-8.13094832591857

> <r_i_glide_lipo>
-5.12459034696662

> <r_i_glide_hbond>
0

> <r_i_glide_metal>
-0

> <r_i_glide_rewards>
-0.976901377521279

> <r_i_glide_evdw>
-42.0925521850586

> <r_i_glide_ecoul>
-1.3632560968399

> <r_i_glide_erotb>
0.279659422348238

> <r_i_glide_esite>
0

> <r_i_glide_emodel>
-60.9777151509069

> <r_i_glide_energy>
-43.4558082818985

> <r_i_glide_einternal>
5.63292646408081

> <i_i_glide_confnum>
3

> <i_i_glide_posenum>
281

> <r_i_glide_eff_state_penalty>
-0

$$$$
