lig_eg5_CHEMBL1077204
                    3D
 Schrodinger Suite 2020-3.
 65 68  0  0  1  0            999 V2000
   29.9460   15.7798   21.6430 C   0  0  0  0  0  0
   29.1075   15.9432   20.4569 N   0  0  0  0  0  0
   29.3909   17.2396   19.8444 C   0  0  0  0  0  0
   27.6741   15.8367   20.7612 C   0  0  0  0  0  0
   27.2298   14.4341   21.2477 C   0  0  0  0  0  0
   27.4274   14.2037   22.6802 N   0  0  0  0  0  0
   26.7282   14.8099   23.6502 C   0  0  0  0  0  0
   25.5999   15.2775   23.4951 O   0  0  0  0  0  0
   27.4375   14.9069   24.7823 N   0  0  0  0  0  0
   27.0264   15.6290   25.9892 C   0  0  0  0  0  0
   26.8247   17.1420   25.8510 C   0  0  2  0  0  0
   28.1052   17.8881   25.4347 C   0  0  0  0  0  0
   27.8693   19.4031   25.4705 C   0  0  0  0  0  0
   27.2349   19.8886   26.8061 C   0  0  2  0  0  0
   28.1800   19.9349   28.0457 C   0  0  1  0  0  0
   29.5531   20.5886   27.8714 C   0  0  0  0  0  0
   29.8069   21.5575   26.8942 C   0  0  0  0  0  0
   31.0992   22.0438   26.7152 C   0  0  0  0  0  0
   32.1153   21.6435   27.5754 C   0  0  0  0  0  0
   31.8527   20.7440   28.6000 C   0  0  0  0  0  0
   30.5831   20.1957   28.7318 C   0  0  0  0  0  0
   27.4431   20.5176   29.1686 N   0  0  0  0  0  0
   26.1517   20.0443   29.4560 C   0  0  0  0  0  0
   25.6279   20.2933   30.7232 C   0  0  0  0  0  0
   24.4257   19.7134   31.1141 C   0  0  0  0  0  0
   23.7560   18.8440   30.2537 C   0  0  0  0  0  0
   22.5013   18.1340   30.7466 C   0  0  0  0  0  0
   21.9578   17.3454   29.8176 F   0  0  0  0  0  0
   22.8029   17.3805   31.8052 F   0  0  0  0  0  0
   21.6027   19.0426   31.1160 F   0  0  0  0  0  0
   24.2624   18.6376   28.9648 C   0  0  0  0  0  0
   25.4480   19.2471   28.5341 C   0  0  0  0  0  0
   26.0037   18.9912   27.1340 C   0  0  2  0  0  0
   26.3909   17.6209   27.1191 O   0  0  0  0  0  0
   29.9023   14.7555   22.0094 H   0  0  0  0  0  0
   29.6288   16.4451   22.4474 H   0  0  0  0  0  0
   30.9937   15.9842   21.4167 H   0  0  0  0  0  0
   28.8016   17.3793   18.9372 H   0  0  0  0  0  0
   30.4401   17.3120   19.5557 H   0  0  0  0  0  0
   29.1690   18.0660   20.5228 H   0  0  0  0  0  0
   27.3039   16.6352   21.4085 H   0  0  0  0  0  0
   27.1920   15.9767   19.7909 H   0  0  0  0  0  0
   26.1822   14.2712   20.9886 H   0  0  0  0  0  0
   27.7747   13.6640   20.6990 H   0  0  0  0  0  0
   28.1970   13.6035   22.9369 H   0  0  0  0  0  0
   28.3172   14.4152   24.8366 H   0  0  0  0  0  0
   26.0890   15.2317   26.3719 H   0  0  0  0  0  0
   27.7775   15.4399   26.7564 H   0  0  0  0  0  0
   26.0381   17.3084   25.1119 H   0  0  0  0  0  0
   28.9273   17.6181   26.1000 H   0  0  0  0  0  0
   28.4096   17.5782   24.4345 H   0  0  0  0  0  0
   28.8003   19.9089   25.2293 H   0  0  0  0  0  0
   27.1927   19.6636   24.6543 H   0  0  0  0  0  0
   26.8488   20.8935   26.6362 H   0  0  0  0  0  0
   28.4059   18.9012   28.3168 H   0  0  0  0  0  0
   29.0216   21.9087   26.2423 H   0  0  0  0  0  0
   31.3091   22.7441   25.9175 H   0  0  0  0  0  0
   33.1126   22.0428   27.4582 H   0  0  0  0  0  0
   32.6406   20.4447   29.2724 H   0  0  0  0  0  0
   30.3982   19.4665   29.5067 H   0  0  0  0  0  0
   28.0125   20.9517   29.8793 H   0  0  0  0  0  0
   26.1637   20.9120   31.4261 H   0  0  0  0  0  0
   24.0384   19.9013   32.1056 H   0  0  0  0  0  0
   23.7413   17.9828   28.2822 H   0  0  0  0  0  0
   25.2113   19.1648   26.4018 H   0  0  0  0  0  0
  1  2  1  0  0  0
  1 35  1  0  0  0
  1 36  1  0  0  0
  1 37  1  0  0  0
  2  3  1  0  0  0
  2  4  1  0  0  0
  3 38  1  0  0  0
  3 39  1  0  0  0
  3 40  1  0  0  0
  4  5  1  0  0  0
  4 41  1  0  0  0
  4 42  1  0  0  0
  5  6  1  0  0  0
  5 43  1  0  0  0
  5 44  1  0  0  0
  6  7  1  0  0  0
  6 45  1  0  0  0
  7  8  2  0  0  0
  7  9  1  0  0  0
  9 10  1  0  0  0
  9 46  1  0  0  0
 10 11  1  0  0  0
 10 47  1  0  0  0
 10 48  1  0  0  0
 11 34  1  0  0  0
 11 12  1  0  0  0
 11 49  1  0  0  0
 12 13  1  0  0  0
 12 50  1  0  0  0
 12 51  1  0  0  0
 13 14  1  0  0  0
 13 52  1  0  0  0
 13 53  1  0  0  0
 14 33  1  0  0  0
 14 15  1  0  0  0
 14 54  1  0  0  0
 15 16  1  0  0  0
 15 22  1  0  0  0
 15 55  1  0  0  0
 16 21  1  0  0  0
 16 17  2  0  0  0
 17 18  1  0  0  0
 17 56  1  0  0  0
 18 19  2  0  0  0
 18 57  1  0  0  0
 19 20  1  0  0  0
 19 58  1  0  0  0
 20 21  2  0  0  0
 20 59  1  0  0  0
 21 60  1  0  0  0
 22 23  1  0  0  0
 22 61  1  0  0  0
 23 32  2  0  0  0
 23 24  1  0  0  0
 24 25  2  0  0  0
 24 62  1  0  0  0
 25 26  1  0  0  0
 25 63  1  0  0  0
 26 27  1  0  0  0
 26 31  2  0  0  0
 27 28  1  0  0  0
 27 29  1  0  0  0
 27 30  1  0  0  0
 31 32  1  0  0  0
 31 64  1  0  0  0
 32 33  1  0  0  0
 33 34  1  0  0  0
 33 65  1  0  0  0
M  END
> <s_m_source_file>
/home/user-home/yujie/0_PBCNetv2/data/FEP/eg5/inp_ligprep.csv

> <i_m_source_file_index>
22

> <i_lp_mmshare_version>
51139

> <i_f3d_flags>
0

> <s_epik_input>
W0NIM11OKFtDSDNdKVtDSDJdW0NIMl1bTkhdQyg9TylbTkhdW0NIMl1bQ0BIXShbQ0gyXVtDSDJdMSlPW0NASF0oW0NASF0xMiljM2MoW2NIXVtjSF1jKEMoRikoRilGKVtjSF0zKVtOSF1bQ0BASF0yYzRbY0hdW2NIXVtjSF1bY0hdW2NIXTQ=

> <s_epik_cmdline>
J2VwaWtfcHl0aG9uJywgJy1waHQnLCAnMi4wJywgJy1waCcsICc3LjQnLCAnLXRuJywgJzgnLCAnLW1hJywgJzIwMCcsICctaW1hZScsICc8aW5maWxlLm1hZT4nLCAnLW9tYWUnLCAnPG91dGZpbGUubWFlPic=

> <r_epik_Ionization_Penalty>
  2.5402

> <r_epik_Ionization_Penalty_Charging>
  0.0000

> <r_epik_Ionization_Penalty_Neutral>
  2.5402

> <r_epik_State_Penalty>
  2.7080

> <r_epik_Charging_Adjusted_Penalty>
2.70801

> <i_epik_Tot_Q>
0

> <i_epik_Tot_abs_Q>
0

> <s_lp_Force_Field>
OPLS3e

> <r_lp_Energy>
37.2037

> <b_lp_Chiralities_Consistent>
1

> <s_lp_Variant>
lig_eg5_CHEMBL1077204-2

> <s_i_glide_gridfile>
eg5-001-gridgen

> <i_i_glide_lignum>
30

> <i_i_glide_rotatable_bonds>
9

> <r_i_docking_score>
-4.54758809136469

> <r_i_glide_ligand_efficiency>
-0.133752590922491

> <r_i_glide_ligand_efficiency_sa>
-0.433306471494609

> <r_i_glide_ligand_efficiency_ln>
-1.00468976490783

> <r_i_glide_gscore>
-7.25559809136469

> <r_i_glide_lipo>
-4.34002081555257

> <r_i_glide_hbond>
0

> <r_i_glide_metal>
-0

> <r_i_glide_rewards>
-1.32413327338402

> <r_i_glide_evdw>
-45.8030319213867

> <r_i_glide_ecoul>
0.496618986129761

> <r_i_glide_erotb>
0.624229890532913

> <r_i_glide_esite>
-1.51448111428732e-05

> <r_i_glide_emodel>
-59.7293847676668

> <r_i_glide_energy>
-45.306412935257

> <r_i_glide_einternal>
7.06057596206665

> <i_i_glide_confnum>
48

> <i_i_glide_posenum>
53

> <r_i_glide_eff_state_penalty>
2.70801

$$$$
